Version 4
SHEET 1 1160 976
WIRE 48 -400 48 -480
WIRE 48 -400 -208 -400
WIRE 192 -400 48 -400
WIRE -1232 -288 -1328 -288
WIRE -1104 -288 -1104 -336
WIRE -1104 -288 -1152 -288
WIRE -208 -288 -208 -400
WIRE 192 -288 192 -400
WIRE 32 -240 -64 -240
WIRE 48 -240 32 -240
WIRE -1104 -208 -1104 -288
WIRE -1328 -160 -1328 -288
WIRE -1168 -160 -1328 -160
WIRE 192 -160 192 -192
WIRE -1488 -112 -1648 -112
WIRE -1392 -112 -1408 -112
WIRE -768 -64 -896 -64
WIRE -608 -64 -688 -64
WIRE -208 -64 -208 -112
WIRE 32 -64 32 -240
WIRE 32 -64 -208 -64
WIRE -1648 -48 -1648 -112
WIRE -1328 -32 -1328 -64
WIRE -208 -16 -208 -64
WIRE -1104 16 -1104 -32
WIRE -1072 16 -1104 16
WIRE -896 16 -896 -64
WIRE -896 16 -928 16
WIRE -272 32 -400 32
WIRE -1648 64 -1648 32
WIRE -896 64 -896 16
WIRE -768 64 -896 64
WIRE -608 80 -608 -64
WIRE -608 80 -704 80
WIRE -528 80 -608 80
WIRE 192 80 192 -80
WIRE 368 80 192 80
WIRE -768 96 -832 96
WIRE -400 96 -400 32
WIRE -400 96 -464 96
WIRE -208 96 -208 80
WIRE -208 96 -352 96
WIRE -1104 112 -1104 16
WIRE -1072 112 -1104 112
WIRE -896 112 -896 64
WIRE -896 112 -928 112
WIRE -528 112 -576 112
WIRE -208 128 -208 96
WIRE 368 128 368 80
WIRE -832 144 -832 96
WIRE -1104 160 -1104 112
WIRE -400 176 -400 96
WIRE -272 176 -400 176
WIRE -576 208 -576 112
WIRE -352 208 -352 96
WIRE -352 208 -576 208
WIRE -352 240 -352 208
WIRE -208 256 -208 224
WIRE -16 256 -208 256
WIRE 368 256 368 208
WIRE -1104 288 -1104 240
WIRE -208 320 -208 256
WIRE 192 320 192 80
WIRE -352 368 -352 320
WIRE -1072 400 -1072 368
WIRE -880 400 -880 368
WIRE -16 448 -16 256
WIRE -16 448 -64 448
WIRE 48 448 -16 448
WIRE -1072 496 -1072 480
WIRE -1072 496 -1168 496
WIRE -880 496 -880 480
WIRE -880 496 -960 496
WIRE -1168 512 -1168 496
WIRE -1072 512 -1072 496
WIRE -880 512 -880 496
WIRE -960 528 -960 496
WIRE -208 608 -208 496
WIRE 48 608 -208 608
WIRE 192 608 192 496
WIRE 192 608 48 608
WIRE -1072 656 -1072 592
WIRE -880 656 -880 592
WIRE 48 704 48 608
FLAG -352 368 0
FLAG 48 -480 150v
FLAG 48 704 -150v
FLAG 368 256 0
FLAG -1168 512 0
FLAG -960 528 0
FLAG -880 368 150v
FLAG -880 656 -150v
FLAG -1072 368 +12v
FLAG -1072 656 -12v
FLAG -1648 64 0
FLAG -1328 -32 0
FLAG -1104 288 -12v
FLAG -1104 -336 +12v
FLAG -832 144 0
FLAG -736 48 +12v
FLAG -736 112 -12v
FLAG -496 64 -12v
FLAG -496 128 +12v
SYMBOL npn -144 400 M0
SYMATTR InstName Q1
SYMBOL npn 128 400 R0
SYMATTR InstName Q2
SYMBOL pnp 128 -192 M180
SYMATTR InstName Q3
SYMBOL pnp -144 -192 R180
SYMATTR InstName Q4
SYMBOL pnp -272 224 M180
SYMATTR InstName Q5
SYMBOL npn -272 -16 R0
SYMATTR InstName Q6
SYMBOL res -368 224 R0
SYMATTR InstName R1
SYMATTR Value 3.9K
SYMATTR SpiceLine tol=1 pwr=0.1
SYMBOL res 352 112 R0
SYMATTR InstName R2
SYMATTR Value 70K
SYMATTR SpiceLine tol=1 pwr=0.1
SYMBOL voltage -880 384 R0
WINDOW 123 0 0 Left 0
WINDOW 39 0 0 Left 0
SYMATTR InstName V1
SYMATTR Value 150
SYMBOL voltage -880 496 R0
WINDOW 123 0 0 Left 0
WINDOW 39 0 0 Left 0
SYMATTR InstName V2
SYMATTR Value 150
SYMBOL voltage -1072 384 R0
WINDOW 123 0 0 Left 0
WINDOW 39 0 0 Left 0
SYMATTR InstName V3
SYMATTR Value 12
SYMBOL voltage -1072 496 R0
WINDOW 123 0 0 Left 0
WINDOW 39 0 0 Left 0
SYMATTR InstName V4
SYMATTR Value 12
SYMBOL voltage -1648 -64 R0
WINDOW 123 0 0 Left 0
WINDOW 39 0 0 Left 0
SYMATTR InstName V5
SYMATTR Value PULSE(5 0 0 1n 1n 1250u 1500u 1000)
SYMBOL res 144 -256 R90
WINDOW 0 0 56 VBottom 2
WINDOW 3 32 56 VTop 2
SYMATTR InstName R4
SYMATTR Value 0.1
SYMBOL res -48 432 R90
WINDOW 0 0 56 VBottom 2
WINDOW 3 33 50 VTop 2
SYMATTR InstName R3
SYMATTR Value 0.1
SYMBOL res 144 432 R90
WINDOW 0 0 56 VBottom 2
WINDOW 3 32 56 VTop 2
SYMATTR InstName R5
SYMATTR Value 0.1
SYMBOL res -48 -256 R90
WINDOW 0 0 56 VBottom 2
WINDOW 3 32 56 VTop 2
SYMATTR InstName R6
SYMATTR Value 0.1
SYMBOL res -224 -208 R0
SYMATTR InstName R7
SYMATTR Value 0.1
SYMBOL res 176 -176 R0
SYMATTR InstName R8
SYMATTR Value 0.1
SYMBOL res -224 304 R0
SYMATTR InstName R9
SYMATTR Value 0.1
SYMBOL res 176 304 R0
SYMATTR InstName R10
SYMATTR Value 0.1
SYMBOL npn -1392 -160 R0
SYMATTR InstName Q7
SYMBOL pnp -1168 -112 M180
SYMATTR InstName Q8
SYMBOL OpAmps\\AD712 -736 16 R0
SYMATTR InstName U2
SYMBOL res -1136 -304 R90
WINDOW 0 0 56 VBottom 2
WINDOW 3 32 56 VTop 2
SYMATTR InstName R11
SYMATTR Value 10k
SYMBOL res -1392 -128 R90
WINDOW 0 0 56 VBottom 2
WINDOW 3 32 56 VTop 2
SYMATTR InstName R12
SYMATTR Value 4.7k
SYMBOL res -1120 -128 R0
SYMATTR InstName R13
SYMATTR Value 1k
SYMBOL res -1120 144 R0
SYMATTR InstName R14
SYMATTR Value 1.6k
SYMBOL diode -1072 32 R270
WINDOW 0 32 32 VTop 2
WINDOW 3 0 32 VBottom 2
SYMATTR InstName D1
SYMBOL diode -1008 96 R90
WINDOW 0 0 32 VBottom 2
WINDOW 3 32 32 VTop 2
SYMATTR InstName D2
SYMBOL res -912 0 R90
WINDOW 0 0 56 VBottom 2
WINDOW 3 32 56 VTop 2
SYMATTR InstName R15
SYMATTR Value 1.35k
SYMBOL res -912 96 R90
WINDOW 0 0 56 VBottom 2
WINDOW 3 32 56 VTop 2
SYMATTR InstName R16
SYMATTR Value 41k
SYMBOL res -672 -80 R90
WINDOW 0 0 56 VBottom 2
WINDOW 3 32 56 VTop 2
SYMATTR InstName R18
SYMATTR Value 7.5k
SYMBOL OpAmps\\AD712 -496 160 M180
SYMATTR InstName U1
TEXT -1604 100 Left 2 !.tran 5
