Version 4
SHEET 1 880 680
WIRE 336 16 336 -32
WIRE 512 16 336 16
WIRE 336 96 336 16
WIRE 336 96 288 96
WIRE 512 128 512 96
WIRE 32 160 -128 160
WIRE -128 208 -128 160
WIRE 32 224 -16 224
WIRE -16 240 -16 224
WIRE -128 288 -128 272
WIRE 32 288 -128 288
WIRE 368 288 288 288
WIRE 496 288 368 288
WIRE 368 320 368 288
FLAG 368 384 0
FLAG 336 -32 12v
FLAG -16 240 0
FLAG 512 128 0
FLAG 496 368 0
SYMBOL PowerProducts\\LT1054 160 192 R0
SYMATTR InstName U1
SYMBOL cap -144 208 R0
SYMATTR InstName C1
SYMATTR Value 10µ
SYMBOL cap 352 320 R0
SYMATTR InstName C2
SYMATTR Value 100µ
SYMBOL voltage 512 0 R0
WINDOW 123 0 0 Left 0
WINDOW 39 24 124 Left 2
SYMATTR SpiceLine Rser=0
SYMATTR InstName V1
SYMATTR Value 20
SYMBOL res 480 272 R0
SYMATTR InstName R1
SYMATTR Value 100
TEXT -144 408 Left 2 !.tran 0 100m 0 10u
